*Heading
** Job name: heat_conduction Model name: Model-1
** Generated by: Abaqus/CAE 2020
*Preprint, echo=NO, model=NO, history=NO, contact=NO
**
** PARTS
**
*Part, name=cylinder_bar
*Node
      1,  0.499070823, 0.0304681994,           0.
      2,  0.449421644,  0.219135076,           0.
      3,  0.251935512,  0.431889445,           0.
      4, -0.0304681994,  0.499070823,           0.
      5, -0.219135076,  0.449421644,           0.
      6, -0.431889445,  0.251935512,           0.
      7, -0.499070823, -0.0304681994,           0.
      8, -0.449421644, -0.219135076,           0.
      9, -0.251935512, -0.431889445,           0.
     10, 0.0304681994, -0.499070823,           0.
     11,  0.219135076, -0.449421644,           0.
     12,  0.431889445, -0.251935512,           0.
     13,  0.472741008, -0.162837192,           0.
     14,  0.495425373, -0.0674811229,           0.
     15,  0.483537257,  0.127246648,           0.
     16,   0.39803499,  0.302602291,           0.
     17,  0.331352085,   0.37444064,           0.
     18,  0.162837192,  0.472741008,           0.
     19, 0.0674811229,  0.495425373,           0.
     20, -0.127246648,  0.483537257,           0.
** ... 14524 like lines cut
*Element, type=DC3D8
    1,   201,   176,   175,   200,    57,    32,    31,    56
    2,   263,   256,   198,   207,   119,   112,    54,    63
    3,   178,   153,   171,   196,    34,     9,    27,    52
    4,   183,   202,   258,   184,    39,    58,   114,    40
    5,   179,   151,   168,   193,    35,     7,    24,    49
    6,   191,   166,   165,   190,    47,    22,    21,    46
    7,   180,   149,   164,   261,    36,     5,    20,   117
    8,   188,   162,   147,   181,    44,    18,     3,    37
    9,   209,   260,   181,   187,    65,   116,    37,    43
   10,   182,   185,   204,   259,    38,    41,    60,   115
   11,   156,   177,   183,   157,    12,    33,    39,    13
   12,   158,   184,   214,   145,    14,    40,    70,     1
   13,   182,   146,   159,   185,    38,     2,    15,    41
   14,   285,   239,   263,   275,   141,    95,   119,   131
   15,   181,   147,   161,   187,    37,     3,    17,    43
   16,   248,   245,   247,   241,   104,   101,   103,    97
   17,   205,   193,   192,   219,    61,    49,    48,    75
   18,   257,   237,   261,   189,   113,    93,   117,    45
   19,   149,   180,   190,   165,     5,    36,    46,    21
   20,   287,   277,   226,   282,   143,   133,    82,   138
** ... 12680 like lines cut
*Nset, nset=Set-1, generate
     1,  14544,      1
*Elset, elset=Set-1, generate
     1,  12700,      1
** Section: Section-cylinder
*Solid Section, elset=Set-1, material=copper
,
*End Part
**  
**
** ASSEMBLY
**
*Assembly, name=Assembly
**  
*Instance, name=cylinder_bar-1, part=cylinder_bar
*End Instance
**  
*Nset, nset=Set-1, instance=cylinder_bar-1, generate
 14401,  14544,      1
*Elset, elset=Set-1, instance=cylinder_bar-1, generate
 12574,  12700,      1
*Nset, nset=Set-2, instance=cylinder_bar-1, generate
   1,  144,    1
*Elset, elset=Set-2, instance=cylinder_bar-1, generate
   1,  127,    1
*End Assembly
** 
** MATERIALS
** 
*Material, name=copper
*Conductivity
385.,
** ----------------------------------------------------------------
** 
** STEP: heat_conduction
** 
*Step, name=heat_conduction, nlgeom=NO
*Heat Transfer, steady state, deltmx=0.
1., 1., 1e-05, 1., 
** 
** BOUNDARY CONDITIONS
** 
** Name: temp_1 Type: Temperature
*Boundary
Set-1, 11, 11, 400.
** Name: temp_2 Type: Temperature
*Boundary
Set-2, 11, 11, 300.
** 
** OUTPUT REQUESTS
** 
*Restart, write, frequency=0
** 
** FIELD OUTPUT: F-Output-1
** 
*Output, field, variable=PRESELECT
*Output, history, frequency=0
*End Step
